Version 4
SHEET 1 880 680
WIRE 224 -16 128 -16
WIRE 464 -16 304 -16
WIRE 320 64 208 64
WIRE 336 64 320 64
WIRE -16 144 -96 144
WIRE 128 144 128 -16
WIRE 128 144 64 144
WIRE 144 144 128 144
WIRE 208 144 208 64
WIRE -96 160 -96 144
WIRE 144 160 144 144
WIRE 176 160 144 160
WIRE 464 176 464 -16
WIRE 464 176 240 176
WIRE 176 192 160 192
WIRE 320 208 320 144
WIRE 432 208 320 208
WIRE 128 224 96 224
WIRE 160 224 160 192
WIRE 160 224 128 224
WIRE 432 224 432 208
WIRE 320 240 320 208
WIRE 336 240 320 240
WIRE -96 272 -96 240
WIRE 16 272 16 224
WIRE 128 272 128 224
WIRE 208 336 208 208
WIRE 336 336 336 320
WIRE 336 336 208 336
WIRE 128 384 128 352
WIRE 16 400 16 352
FLAG 432 224 0
FLAG 128 384 0
FLAG -96 272 0
FLAG 16 400 0
SYMBOL OpAmps\\AD711 208 112 R0
SYMATTR InstName U1
SYMBOL voltage 320 48 R0
WINDOW 123 0 0 Left 0
WINDOW 39 0 0 Left 0
SYMATTR InstName V1
SYMATTR Value 10
SYMBOL voltage 336 224 R0
WINDOW 123 0 0 Left 0
WINDOW 39 0 0 Left 0
SYMATTR InstName V2
SYMATTR Value 10
SYMBOL res 80 128 R90
WINDOW 0 0 56 VBottom 2
WINDOW 3 32 56 VTop 2
SYMATTR InstName 2k
SYMATTR Value 2k
SYMATTR SpiceLine tol=1 pwr=.25
SYMBOL res 112 208 R90
WINDOW 0 0 56 VBottom 2
WINDOW 3 32 56 VTop 2
SYMATTR InstName R3
SYMATTR Value 2k
SYMATTR SpiceLine tol=1 pwr=.25
SYMBOL res 320 -32 R90
WINDOW 0 0 56 VBottom 2
WINDOW 3 32 56 VTop 2
SYMATTR InstName R4
SYMATTR Value 2k
SYMATTR SpiceLine tol=1 pwr=.25
SYMBOL res 112 256 R0
SYMATTR InstName R2
SYMATTR Value 2k
SYMATTR SpiceLine tol=1 pwr=.25
SYMBOL voltage -96 144 R0
WINDOW 123 0 0 Left 0
WINDOW 39 0 0 Left 0
SYMATTR InstName 4v
SYMATTR Value SINE(0 5 100)
SYMBOL voltage 16 256 R0
WINDOW 123 24 124 Left 2
WINDOW 39 0 0 Left 0
SYMATTR Value2 AC 2 wt
SYMATTR InstName V4
SYMATTR Value SINE(0 2 100)
TEXT -128 424 Left 2 !.tran .1
